<?xml version="1.0" encoding="UTF-8"?>

<!-- generated on 09/21/21 08:51:31 by Eclipse SUMO netgenerate Version 1.8.0
<configuration xmlns:xsi="http://www.w3.org/2001/XMLSchema-instance" xsi:noNamespaceSchemaLocation="http://sumo.dlr.de/xsd/netgenerateConfiguration.xsd">

    <grid_network>
        <grid value="true"/>
        <grid.length value="300"/>
        <grid.x-number value="5"/>
        <grid.y-number value="4"/>
    </grid_network>

    <building_defaults>
        <default.lanenumber value="2"/>
        <default.lanewidth value="4"/>
        <default.speed value="16.67"/>
    </building_defaults>

    <junctions>
        <no-turnarounds value="true"/>
    </junctions>

</configuration>
-->

<net version="1.6" junctionCornerDetail="5" limitTurnSpeed="5.50" xmlns:xsi="http://www.w3.org/2001/XMLSchema-instance" xsi:noNamespaceSchemaLocation="http://sumo.dlr.de/xsd/net_file.xsd">

    <location netOffset="0.00,0.00" convBoundary="0.00,0.00,1200.00,900.00" origBoundary="0.00,0.00,1200.00,900.00" projParameter="!"/>

    <edge id=":A0_0" function="internal">
        <lane id=":A0_0_0" index="0" speed="10.02" length="22.58" width="4.00" shape="-6.00,8.00 -5.13,1.88 -2.50,-2.50 1.88,-5.13 8.00,-6.00"/>
    </edge>
    <edge id=":A0_1" function="internal">
        <lane id=":A0_1_0" index="0" speed="8.56" length="16.13" width="4.00" shape="-2.00,8.00 -1.38,3.63 0.50,0.50 3.63,-1.38 8.00,-2.00"/>
    </edge>
    <edge id=":A0_2" function="internal">
        <lane id=":A0_2_0" index="0" speed="4.36" length="3.23" width="4.00" shape="8.00,6.00 7.13,6.13 6.50,6.50 6.13,7.13 6.00,8.00"/>
    </edge>
    <edge id=":A0_3" function="internal">
        <lane id=":A0_3_0" index="0" speed="6.79" length="9.68" width="4.00" shape="8.00,2.00 5.38,2.38 3.50,3.50 2.38,5.38 2.00,8.00"/>
    </edge>
    <edge id=":A1_0" function="internal">
        <lane id=":A1_0_0" index="0" speed="16.67" length="24.00" width="4.00" shape="-6.00,312.00 -6.00,288.00"/>
        <lane id=":A1_0_1" index="1" speed="16.67" length="24.00" width="4.00" shape="-2.00,312.00 -2.00,288.00"/>
    </edge>
    <edge id=":A1_2" function="internal">
        <lane id=":A1_2_0" index="0" speed="10.02" length="8.37" width="4.00" shape="-2.00,312.00 -1.12,305.88 0.00,304.00"/>
    </edge>
    <edge id=":A1_8" function="internal">
        <lane id=":A1_8_0" index="0" speed="10.02" length="14.20" width="4.00" shape="0.00,304.00 1.50,301.50 5.88,298.88 12.00,298.00"/>
    </edge>
    <edge id=":A1_3" function="internal">
        <lane id=":A1_3_0" index="0" speed="6.79" length="9.68" width="4.00" shape="12.00,306.00 9.38,306.38 7.50,307.50 6.38,309.38 6.00,312.00"/>
    </edge>
    <edge id=":A1_4" function="internal">
        <lane id=":A1_4_0" index="0" speed="10.02" length="22.58" width="4.00" shape="12.00,302.00 5.88,301.13 1.50,298.50 -1.12,294.13 -2.00,288.00"/>
    </edge>
    <edge id=":A1_5" function="internal">
        <lane id=":A1_5_0" index="0" speed="6.79" length="9.68" width="4.00" shape="6.00,288.00 6.38,290.63 7.50,292.50 9.38,293.63 12.00,294.00"/>
    </edge>
    <edge id=":A1_6" function="internal">
        <lane id=":A1_6_0" index="0" speed="16.67" length="24.00" width="4.00" shape="6.00,288.00 6.00,312.00"/>
        <lane id=":A1_6_1" index="1" speed="16.67" length="24.00" width="4.00" shape="2.00,288.00 2.00,312.00"/>
    </edge>
    <edge id=":A2_0" function="internal">
        <lane id=":A2_0_0" index="0" speed="16.67" length="24.00" width="4.00" shape="-6.00,612.00 -6.00,588.00"/>
        <lane id=":A2_0_1" index="1" speed="16.67" length="24.00" width="4.00" shape="-2.00,612.00 -2.00,588.00"/>
    </edge>
    <edge id=":A2_2" function="internal">
        <lane id=":A2_2_0" index="0" speed="10.02" length="8.37" width="4.00" shape="-2.00,612.00 -1.12,605.88 0.00,604.00"/>
    </edge>
    <edge id=":A2_8" function="internal">
        <lane id=":A2_8_0" index="0" speed="10.02" length="14.20" width="4.00" shape="0.00,604.00 1.50,601.50 5.88,598.88 12.00,598.00"/>
    </edge>
    <edge id=":A2_3" function="internal">
        <lane id=":A2_3_0" index="0" speed="6.79" length="9.68" width="4.00" shape="12.00,606.00 9.38,606.38 7.50,607.50 6.38,609.38 6.00,612.00"/>
    </edge>
    <edge id=":A2_4" function="internal">
        <lane id=":A2_4_0" index="0" speed="10.02" length="22.58" width="4.00" shape="12.00,602.00 5.88,601.13 1.50,598.50 -1.12,594.13 -2.00,588.00"/>
    </edge>
    <edge id=":A2_5" function="internal">
        <lane id=":A2_5_0" index="0" speed="6.79" length="9.68" width="4.00" shape="6.00,588.00 6.38,590.63 7.50,592.50 9.38,593.63 12.00,594.00"/>
    </edge>
    <edge id=":A2_6" function="internal">
        <lane id=":A2_6_0" index="0" speed="16.67" length="24.00" width="4.00" shape="6.00,588.00 6.00,612.00"/>
        <lane id=":A2_6_1" index="1" speed="16.67" length="24.00" width="4.00" shape="2.00,588.00 2.00,612.00"/>
    </edge>
    <edge id=":A3_0" function="internal">
        <lane id=":A3_0_0" index="0" speed="10.02" length="22.58" width="4.00" shape="8.00,906.00 1.88,905.13 -2.50,902.50 -5.13,898.13 -6.00,892.00"/>
    </edge>
    <edge id=":A3_1" function="internal">
        <lane id=":A3_1_0" index="0" speed="8.56" length="16.13" width="4.00" shape="8.00,902.00 3.63,901.38 0.50,899.50 -1.38,896.38 -2.00,892.00"/>
    </edge>
    <edge id=":A3_2" function="internal">
        <lane id=":A3_2_0" index="0" speed="4.36" length="3.23" width="4.00" shape="6.00,892.00 6.13,892.88 6.50,893.50 7.13,893.88 8.00,894.00"/>
    </edge>
    <edge id=":A3_3" function="internal">
        <lane id=":A3_3_0" index="0" speed="6.79" length="9.68" width="4.00" shape="2.00,892.00 2.38,894.63 3.50,896.50 5.38,897.63 8.00,898.00"/>
    </edge>
    <edge id=":B0_0" function="internal">
        <lane id=":B0_0_0" index="0" speed="6.79" length="9.68" width="4.00" shape="294.00,12.00 293.63,9.38 292.50,7.50 290.63,6.38 288.00,6.00"/>
    </edge>
    <edge id=":B0_1" function="internal">
        <lane id=":B0_1_0" index="0" speed="10.02" length="22.58" width="4.00" shape="298.00,12.00 298.88,5.88 301.50,1.50 305.88,-1.12 312.00,-2.00"/>
    </edge>
    <edge id=":B0_2" function="internal">
        <lane id=":B0_2_0" index="0" speed="6.79" length="9.68" width="4.00" shape="312.00,6.00 309.38,6.38 307.50,7.50 306.38,9.38 306.00,12.00"/>
    </edge>
    <edge id=":B0_3" function="internal">
        <lane id=":B0_3_0" index="0" speed="16.67" length="24.00" width="4.00" shape="312.00,6.00 288.00,6.00"/>
        <lane id=":B0_3_1" index="1" speed="16.67" length="24.00" width="4.00" shape="312.00,2.00 288.00,2.00"/>
    </edge>
    <edge id=":B0_5" function="internal">
        <lane id=":B0_5_0" index="0" speed="16.67" length="24.00" width="4.00" shape="288.00,-6.00 312.00,-6.00"/>
        <lane id=":B0_5_1" index="1" speed="16.67" length="24.00" width="4.00" shape="288.00,-2.00 312.00,-2.00"/>
    </edge>
    <edge id=":B0_7" function="internal">
        <lane id=":B0_7_0" index="0" speed="10.02" length="8.37" width="4.00" shape="288.00,-2.00 294.13,-1.12 296.00,0.00"/>
    </edge>
    <edge id=":B0_8" function="internal">
        <lane id=":B0_8_0" index="0" speed="10.02" length="14.20" width="4.00" shape="296.00,0.00 298.50,1.50 301.13,5.88 302.00,12.00"/>
    </edge>
    <edge id=":B1_0" function="internal">
        <lane id=":B1_0_0" index="0" speed="6.79" length="9.68" width="4.00" shape="294.00,312.00 293.63,309.38 292.50,307.50 290.63,306.38 288.00,306.00"/>
    </edge>
    <edge id=":B1_1" function="internal">
        <lane id=":B1_1_0" index="0" speed="16.67" length="24.00" width="4.00" shape="294.00,312.00 294.00,288.00"/>
        <lane id=":B1_1_1" index="1" speed="16.67" length="24.00" width="4.00" shape="298.00,312.00 298.00,288.00"/>
    </edge>
    <edge id=":B1_3" function="internal">
        <lane id=":B1_3_0" index="0" speed="10.02" length="8.37" width="4.00" shape="298.00,312.00 298.88,305.88 300.00,304.00"/>
    </edge>
    <edge id=":B1_16" function="internal">
        <lane id=":B1_16_0" index="0" speed="10.02" length="14.20" width="4.00" shape="300.00,304.00 301.50,301.50 305.88,298.88 312.00,298.00"/>
    </edge>
    <edge id=":B1_4" function="internal">
        <lane id=":B1_4_0" index="0" speed="6.79" length="9.68" width="4.00" shape="312.00,306.00 309.38,306.38 307.50,307.50 306.38,309.38 306.00,312.00"/>
    </edge>
    <edge id=":B1_5" function="internal">
        <lane id=":B1_5_0" index="0" speed="16.67" length="24.00" width="4.00" shape="312.00,306.00 288.00,306.00"/>
        <lane id=":B1_5_1" index="1" speed="16.67" length="24.00" width="4.00" shape="312.00,302.00 288.00,302.00"/>
    </edge>
    <edge id=":B1_7" function="internal">
        <lane id=":B1_7_0" index="0" speed="10.02" length="22.58" width="4.00" shape="312.00,302.00 305.88,301.13 301.50,298.50 298.88,294.13 298.00,288.00"/>
    </edge>
    <edge id=":B1_8" function="internal">
        <lane id=":B1_8_0" index="0" speed="6.79" length="9.68" width="4.00" shape="306.00,288.00 306.38,290.63 307.50,292.50 309.38,293.63 312.00,294.00"/>
    </edge>
    <edge id=":B1_9" function="internal">
        <lane id=":B1_9_0" index="0" speed="16.67" length="24.00" width="4.00" shape="306.00,288.00 306.00,312.00"/>
        <lane id=":B1_9_1" index="1" speed="16.67" length="24.00" width="4.00" shape="302.00,288.00 302.00,312.00"/>
    </edge>
    <edge id=":B1_11" function="internal">
        <lane id=":B1_11_0" index="0" speed="10.02" length="8.37" width="4.00" shape="302.00,288.00 301.13,294.13 300.00,296.00"/>
    </edge>
    <edge id=":B1_17" function="internal">
        <lane id=":B1_17_0" index="0" speed="10.02" length="14.20" width="4.00" shape="300.00,296.00 298.50,298.50 294.13,301.13 288.00,302.00"/>
    </edge>
    <edge id=":B1_12" function="internal">
        <lane id=":B1_12_0" index="0" speed="6.79" length="9.68" width="4.00" shape="288.00,294.00 290.63,293.63 292.50,292.50 293.63,290.63 294.00,288.00"/>
    </edge>
    <edge id=":B1_13" function="internal">
        <lane id=":B1_13_0" index="0" speed="16.67" length="24.00" width="4.00" shape="288.00,294.00 312.00,294.00"/>
        <lane id=":B1_13_1" index="1" speed="16.67" length="24.00" width="4.00" shape="288.00,298.00 312.00,298.00"/>
    </edge>
    <edge id=":B1_15" function="internal">
        <lane id=":B1_15_0" index="0" speed="10.02" length="22.58" width="4.00" shape="288.00,298.00 294.13,298.88 298.50,301.50 301.13,305.88 302.00,312.00"/>
    </edge>
    <edge id=":B2_0" function="internal">
        <lane id=":B2_0_0" index="0" speed="6.79" length="9.68" width="4.00" shape="294.00,612.00 293.63,609.38 292.50,607.50 290.63,606.38 288.00,606.00"/>
    </edge>
    <edge id=":B2_1" function="internal">
        <lane id=":B2_1_0" index="0" speed="16.67" length="24.00" width="4.00" shape="294.00,612.00 294.00,588.00"/>
        <lane id=":B2_1_1" index="1" speed="16.67" length="24.00" width="4.00" shape="298.00,612.00 298.00,588.00"/>
    </edge>
    <edge id=":B2_3" function="internal">
        <lane id=":B2_3_0" index="0" speed="10.02" length="8.37" width="4.00" shape="298.00,612.00 298.88,605.88 300.00,604.00"/>
    </edge>
    <edge id=":B2_16" function="internal">
        <lane id=":B2_16_0" index="0" speed="10.02" length="14.20" width="4.00" shape="300.00,604.00 301.50,601.50 305.88,598.88 312.00,598.00"/>
    </edge>
    <edge id=":B2_4" function="internal">
        <lane id=":B2_4_0" index="0" speed="6.79" length="9.68" width="4.00" shape="312.00,606.00 309.38,606.38 307.50,607.50 306.38,609.38 306.00,612.00"/>
    </edge>
    <edge id=":B2_5" function="internal">
        <lane id=":B2_5_0" index="0" speed="16.67" length="24.00" width="4.00" shape="312.00,606.00 288.00,606.00"/>
        <lane id=":B2_5_1" index="1" speed="16.67" length="24.00" width="4.00" shape="312.00,602.00 288.00,602.00"/>
    </edge>
    <edge id=":B2_7" function="internal">
        <lane id=":B2_7_0" index="0" speed="10.02" length="22.58" width="4.00" shape="312.00,602.00 305.88,601.13 301.50,598.50 298.88,594.13 298.00,588.00"/>
    </edge>
    <edge id=":B2_8" function="internal">
        <lane id=":B2_8_0" index="0" speed="6.79" length="9.68" width="4.00" shape="306.00,588.00 306.38,590.63 307.50,592.50 309.38,593.63 312.00,594.00"/>
    </edge>
    <edge id=":B2_9" function="internal">
        <lane id=":B2_9_0" index="0" speed="16.67" length="24.00" width="4.00" shape="306.00,588.00 306.00,612.00"/>
        <lane id=":B2_9_1" index="1" speed="16.67" length="24.00" width="4.00" shape="302.00,588.00 302.00,612.00"/>
    </edge>
    <edge id=":B2_11" function="internal">
        <lane id=":B2_11_0" index="0" speed="10.02" length="8.37" width="4.00" shape="302.00,588.00 301.13,594.13 300.00,596.00"/>
    </edge>
    <edge id=":B2_17" function="internal">
        <lane id=":B2_17_0" index="0" speed="10.02" length="14.20" width="4.00" shape="300.00,596.00 298.50,598.50 294.13,601.13 288.00,602.00"/>
    </edge>
    <edge id=":B2_12" function="internal">
        <lane id=":B2_12_0" index="0" speed="6.79" length="9.68" width="4.00" shape="288.00,594.00 290.63,593.63 292.50,592.50 293.63,590.63 294.00,588.00"/>
    </edge>
    <edge id=":B2_13" function="internal">
        <lane id=":B2_13_0" index="0" speed="16.67" length="24.00" width="4.00" shape="288.00,594.00 312.00,594.00"/>
        <lane id=":B2_13_1" index="1" speed="16.67" length="24.00" width="4.00" shape="288.00,598.00 312.00,598.00"/>
    </edge>
    <edge id=":B2_15" function="internal">
        <lane id=":B2_15_0" index="0" speed="10.02" length="22.58" width="4.00" shape="288.00,598.00 294.13,598.88 298.50,601.50 301.13,605.88 302.00,612.00"/>
    </edge>
    <edge id=":B3_0" function="internal">
        <lane id=":B3_0_0" index="0" speed="16.67" length="24.00" width="4.00" shape="312.00,906.00 288.00,906.00"/>
        <lane id=":B3_0_1" index="1" speed="16.67" length="24.00" width="4.00" shape="312.00,902.00 288.00,902.00"/>
    </edge>
    <edge id=":B3_2" function="internal">
        <lane id=":B3_2_0" index="0" speed="10.02" length="8.37" width="4.00" shape="312.00,902.00 305.88,901.13 304.00,900.00"/>
    </edge>
    <edge id=":B3_8" function="internal">
        <lane id=":B3_8_0" index="0" speed="10.02" length="14.20" width="4.00" shape="304.00,900.00 301.50,898.50 298.88,894.13 298.00,888.00"/>
    </edge>
    <edge id=":B3_3" function="internal">
        <lane id=":B3_3_0" index="0" speed="6.79" length="9.68" width="4.00" shape="306.00,888.00 306.38,890.63 307.50,892.50 309.38,893.63 312.00,894.00"/>
    </edge>
    <edge id=":B3_4" function="internal">
        <lane id=":B3_4_0" index="0" speed="10.02" length="22.58" width="4.00" shape="302.00,888.00 301.13,894.13 298.50,898.50 294.13,901.13 288.00,902.00"/>
    </edge>
    <edge id=":B3_5" function="internal">
        <lane id=":B3_5_0" index="0" speed="6.79" length="9.68" width="4.00" shape="288.00,894.00 290.63,893.63 292.50,892.50 293.63,890.63 294.00,888.00"/>
    </edge>
    <edge id=":B3_6" function="internal">
        <lane id=":B3_6_0" index="0" speed="16.67" length="24.00" width="4.00" shape="288.00,894.00 312.00,894.00"/>
        <lane id=":B3_6_1" index="1" speed="16.67" length="24.00" width="4.00" shape="288.00,898.00 312.00,898.00"/>
    </edge>
    <edge id=":C0_0" function="internal">
        <lane id=":C0_0_0" index="0" speed="6.79" length="9.68" width="4.00" shape="594.00,12.00 593.63,9.38 592.50,7.50 590.63,6.38 588.00,6.00"/>
    </edge>
    <edge id=":C0_1" function="internal">
        <lane id=":C0_1_0" index="0" speed="10.02" length="22.58" width="4.00" shape="598.00,12.00 598.88,5.88 601.50,1.50 605.88,-1.12 612.00,-2.00"/>
    </edge>
    <edge id=":C0_2" function="internal">
        <lane id=":C0_2_0" index="0" speed="6.79" length="9.68" width="4.00" shape="612.00,6.00 609.38,6.38 607.50,7.50 606.38,9.38 606.00,12.00"/>
    </edge>
    <edge id=":C0_3" function="internal">
        <lane id=":C0_3_0" index="0" speed="16.67" length="24.00" width="4.00" shape="612.00,6.00 588.00,6.00"/>
        <lane id=":C0_3_1" index="1" speed="16.67" length="24.00" width="4.00" shape="612.00,2.00 588.00,2.00"/>
    </edge>
    <edge id=":C0_5" function="internal">
        <lane id=":C0_5_0" index="0" speed="16.67" length="24.00" width="4.00" shape="588.00,-6.00 612.00,-6.00"/>
        <lane id=":C0_5_1" index="1" speed="16.67" length="24.00" width="4.00" shape="588.00,-2.00 612.00,-2.00"/>
    </edge>
    <edge id=":C0_7" function="internal">
        <lane id=":C0_7_0" index="0" speed="10.02" length="8.37" width="4.00" shape="588.00,-2.00 594.13,-1.12 596.00,0.00"/>
    </edge>
    <edge id=":C0_8" function="internal">
        <lane id=":C0_8_0" index="0" speed="10.02" length="14.20" width="4.00" shape="596.00,0.00 598.50,1.50 601.13,5.88 602.00,12.00"/>
    </edge>
    <edge id=":C1_0" function="internal">
        <lane id=":C1_0_0" index="0" speed="6.79" length="9.68" width="4.00" shape="594.00,312.00 593.63,309.38 592.50,307.50 590.63,306.38 588.00,306.00"/>
    </edge>
    <edge id=":C1_1" function="internal">
        <lane id=":C1_1_0" index="0" speed="16.67" length="24.00" width="4.00" shape="594.00,312.00 594.00,288.00"/>
        <lane id=":C1_1_1" index="1" speed="16.67" length="24.00" width="4.00" shape="598.00,312.00 598.00,288.00"/>
    </edge>
    <edge id=":C1_3" function="internal">
        <lane id=":C1_3_0" index="0" speed="10.02" length="8.37" width="4.00" shape="598.00,312.00 598.88,305.88 600.00,304.00"/>
    </edge>
    <edge id=":C1_16" function="internal">
        <lane id=":C1_16_0" index="0" speed="10.02" length="14.20" width="4.00" shape="600.00,304.00 601.50,301.50 605.88,298.88 612.00,298.00"/>
    </edge>
    <edge id=":C1_4" function="internal">
        <lane id=":C1_4_0" index="0" speed="6.79" length="9.68" width="4.00" shape="612.00,306.00 609.38,306.38 607.50,307.50 606.38,309.38 606.00,312.00"/>
    </edge>
    <edge id=":C1_5" function="internal">
        <lane id=":C1_5_0" index="0" speed="16.67" length="24.00" width="4.00" shape="612.00,306.00 588.00,306.00"/>
        <lane id=":C1_5_1" index="1" speed="16.67" length="24.00" width="4.00" shape="612.00,302.00 588.00,302.00"/>
    </edge>
    <edge id=":C1_7" function="internal">
        <lane id=":C1_7_0" index="0" speed="10.02" length="22.58" width="4.00" shape="612.00,302.00 605.88,301.13 601.50,298.50 598.88,294.13 598.00,288.00"/>
    </edge>
    <edge id=":C1_8" function="internal">
        <lane id=":C1_8_0" index="0" speed="6.79" length="9.68" width="4.00" shape="606.00,288.00 606.38,290.63 607.50,292.50 609.38,293.63 612.00,294.00"/>
    </edge>
    <edge id=":C1_9" function="internal">
        <lane id=":C1_9_0" index="0" speed="16.67" length="24.00" width="4.00" shape="606.00,288.00 606.00,312.00"/>
        <lane id=":C1_9_1" index="1" speed="16.67" length="24.00" width="4.00" shape="602.00,288.00 602.00,312.00"/>
    </edge>
    <edge id=":C1_11" function="internal">
        <lane id=":C1_11_0" index="0" speed="10.02" length="8.37" width="4.00" shape="602.00,288.00 601.13,294.13 600.00,296.00"/>
    </edge>
    <edge id=":C1_17" function="internal">
        <lane id=":C1_17_0" index="0" speed="10.02" length="14.20" width="4.00" shape="600.00,296.00 598.50,298.50 594.13,301.13 588.00,302.00"/>
    </edge>
    <edge id=":C1_12" function="internal">
        <lane id=":C1_12_0" index="0" speed="6.79" length="9.68" width="4.00" shape="588.00,294.00 590.63,293.63 592.50,292.50 593.63,290.63 594.00,288.00"/>
    </edge>
    <edge id=":C1_13" function="internal">
        <lane id=":C1_13_0" index="0" speed="16.67" length="24.00" width="4.00" shape="588.00,294.00 612.00,294.00"/>
        <lane id=":C1_13_1" index="1" speed="16.67" length="24.00" width="4.00" shape="588.00,298.00 612.00,298.00"/>
    </edge>
    <edge id=":C1_15" function="internal">
        <lane id=":C1_15_0" index="0" speed="10.02" length="22.58" width="4.00" shape="588.00,298.00 594.13,298.88 598.50,301.50 601.13,305.88 602.00,312.00"/>
    </edge>
    <edge id=":C2_0" function="internal">
        <lane id=":C2_0_0" index="0" speed="6.79" length="9.68" width="4.00" shape="594.00,612.00 593.63,609.38 592.50,607.50 590.63,606.38 588.00,606.00"/>
    </edge>
    <edge id=":C2_1" function="internal">
        <lane id=":C2_1_0" index="0" speed="16.67" length="24.00" width="4.00" shape="594.00,612.00 594.00,588.00"/>
        <lane id=":C2_1_1" index="1" speed="16.67" length="24.00" width="4.00" shape="598.00,612.00 598.00,588.00"/>
    </edge>
    <edge id=":C2_3" function="internal">
        <lane id=":C2_3_0" index="0" speed="10.02" length="8.37" width="4.00" shape="598.00,612.00 598.88,605.88 600.00,604.00"/>
    </edge>
    <edge id=":C2_16" function="internal">
        <lane id=":C2_16_0" index="0" speed="10.02" length="14.20" width="4.00" shape="600.00,604.00 601.50,601.50 605.88,598.88 612.00,598.00"/>
    </edge>
    <edge id=":C2_4" function="internal">
        <lane id=":C2_4_0" index="0" speed="6.79" length="9.68" width="4.00" shape="612.00,606.00 609.38,606.38 607.50,607.50 606.38,609.38 606.00,612.00"/>
    </edge>
    <edge id=":C2_5" function="internal">
        <lane id=":C2_5_0" index="0" speed="16.67" length="24.00" width="4.00" shape="612.00,606.00 588.00,606.00"/>
        <lane id=":C2_5_1" index="1" speed="16.67" length="24.00" width="4.00" shape="612.00,602.00 588.00,602.00"/>
    </edge>
    <edge id=":C2_7" function="internal">
        <lane id=":C2_7_0" index="0" speed="10.02" length="22.58" width="4.00" shape="612.00,602.00 605.88,601.13 601.50,598.50 598.88,594.13 598.00,588.00"/>
    </edge>
    <edge id=":C2_8" function="internal">
        <lane id=":C2_8_0" index="0" speed="6.79" length="9.68" width="4.00" shape="606.00,588.00 606.38,590.63 607.50,592.50 609.38,593.63 612.00,594.00"/>
    </edge>
    <edge id=":C2_9" function="internal">
        <lane id=":C2_9_0" index="0" speed="16.67" length="24.00" width="4.00" shape="606.00,588.00 606.00,612.00"/>
        <lane id=":C2_9_1" index="1" speed="16.67" length="24.00" width="4.00" shape="602.00,588.00 602.00,612.00"/>
    </edge>
    <edge id=":C2_11" function="internal">
        <lane id=":C2_11_0" index="0" speed="10.02" length="8.37" width="4.00" shape="602.00,588.00 601.13,594.13 600.00,596.00"/>
    </edge>
    <edge id=":C2_17" function="internal">
        <lane id=":C2_17_0" index="0" speed="10.02" length="14.20" width="4.00" shape="600.00,596.00 598.50,598.50 594.13,601.13 588.00,602.00"/>
    </edge>
    <edge id=":C2_12" function="internal">
        <lane id=":C2_12_0" index="0" speed="6.79" length="9.68" width="4.00" shape="588.00,594.00 590.63,593.63 592.50,592.50 593.63,590.63 594.00,588.00"/>
    </edge>
    <edge id=":C2_13" function="internal">
        <lane id=":C2_13_0" index="0" speed="16.67" length="24.00" width="4.00" shape="588.00,594.00 612.00,594.00"/>
        <lane id=":C2_13_1" index="1" speed="16.67" length="24.00" width="4.00" shape="588.00,598.00 612.00,598.00"/>
    </edge>
    <edge id=":C2_15" function="internal">
        <lane id=":C2_15_0" index="0" speed="10.02" length="22.58" width="4.00" shape="588.00,598.00 594.13,598.88 598.50,601.50 601.13,605.88 602.00,612.00"/>
    </edge>
    <edge id=":C3_0" function="internal">
        <lane id=":C3_0_0" index="0" speed="16.67" length="24.00" width="4.00" shape="612.00,906.00 588.00,906.00"/>
        <lane id=":C3_0_1" index="1" speed="16.67" length="24.00" width="4.00" shape="612.00,902.00 588.00,902.00"/>
    </edge>
    <edge id=":C3_2" function="internal">
        <lane id=":C3_2_0" index="0" speed="10.02" length="8.37" width="4.00" shape="612.00,902.00 605.88,901.13 604.00,900.00"/>
    </edge>
    <edge id=":C3_8" function="internal">
        <lane id=":C3_8_0" index="0" speed="10.02" length="14.20" width="4.00" shape="604.00,900.00 601.50,898.50 598.88,894.13 598.00,888.00"/>
    </edge>
    <edge id=":C3_3" function="internal">
        <lane id=":C3_3_0" index="0" speed="6.79" length="9.68" width="4.00" shape="606.00,888.00 606.38,890.63 607.50,892.50 609.38,893.63 612.00,894.00"/>
    </edge>
    <edge id=":C3_4" function="internal">
        <lane id=":C3_4_0" index="0" speed="10.02" length="22.58" width="4.00" shape="602.00,888.00 601.13,894.13 598.50,898.50 594.13,901.13 588.00,902.00"/>
    </edge>
    <edge id=":C3_5" function="internal">
        <lane id=":C3_5_0" index="0" speed="6.79" length="9.68" width="4.00" shape="588.00,894.00 590.63,893.63 592.50,892.50 593.63,890.63 594.00,888.00"/>
    </edge>
    <edge id=":C3_6" function="internal">
        <lane id=":C3_6_0" index="0" speed="16.67" length="24.00" width="4.00" shape="588.00,894.00 612.00,894.00"/>
        <lane id=":C3_6_1" index="1" speed="16.67" length="24.00" width="4.00" shape="588.00,898.00 612.00,898.00"/>
    </edge>
    <edge id=":D0_0" function="internal">
        <lane id=":D0_0_0" index="0" speed="6.79" length="9.68" width="4.00" shape="894.00,12.00 893.63,9.38 892.50,7.50 890.63,6.38 888.00,6.00"/>
    </edge>
    <edge id=":D0_1" function="internal">
        <lane id=":D0_1_0" index="0" speed="10.02" length="22.58" width="4.00" shape="898.00,12.00 898.88,5.88 901.50,1.50 905.88,-1.12 912.00,-2.00"/>
    </edge>
    <edge id=":D0_2" function="internal">
        <lane id=":D0_2_0" index="0" speed="6.79" length="9.68" width="4.00" shape="912.00,6.00 909.38,6.38 907.50,7.50 906.38,9.38 906.00,12.00"/>
    </edge>
    <edge id=":D0_3" function="internal">
        <lane id=":D0_3_0" index="0" speed="16.67" length="24.00" width="4.00" shape="912.00,6.00 888.00,6.00"/>
        <lane id=":D0_3_1" index="1" speed="16.67" length="24.00" width="4.00" shape="912.00,2.00 888.00,2.00"/>
    </edge>
    <edge id=":D0_5" function="internal">
        <lane id=":D0_5_0" index="0" speed="16.67" length="24.00" width="4.00" shape="888.00,-6.00 912.00,-6.00"/>
        <lane id=":D0_5_1" index="1" speed="16.67" length="24.00" width="4.00" shape="888.00,-2.00 912.00,-2.00"/>
    </edge>
    <edge id=":D0_7" function="internal">
        <lane id=":D0_7_0" index="0" speed="10.02" length="8.37" width="4.00" shape="888.00,-2.00 894.13,-1.12 896.00,0.00"/>
    </edge>
    <edge id=":D0_8" function="internal">
        <lane id=":D0_8_0" index="0" speed="10.02" length="14.20" width="4.00" shape="896.00,0.00 898.50,1.50 901.13,5.88 902.00,12.00"/>
    </edge>
    <edge id=":D1_0" function="internal">
        <lane id=":D1_0_0" index="0" speed="6.79" length="9.68" width="4.00" shape="894.00,312.00 893.63,309.38 892.50,307.50 890.63,306.38 888.00,306.00"/>
    </edge>
    <edge id=":D1_1" function="internal">
        <lane id=":D1_1_0" index="0" speed="16.67" length="24.00" width="4.00" shape="894.00,312.00 894.00,288.00"/>
        <lane id=":D1_1_1" index="1" speed="16.67" length="24.00" width="4.00" shape="898.00,312.00 898.00,288.00"/>
    </edge>
    <edge id=":D1_3" function="internal">
        <lane id=":D1_3_0" index="0" speed="10.02" length="8.37" width="4.00" shape="898.00,312.00 898.88,305.88 900.00,304.00"/>
    </edge>
    <edge id=":D1_16" function="internal">
        <lane id=":D1_16_0" index="0" speed="10.02" length="14.20" width="4.00" shape="900.00,304.00 901.50,301.50 905.88,298.88 912.00,298.00"/>
    </edge>
    <edge id=":D1_4" function="internal">
        <lane id=":D1_4_0" index="0" speed="6.79" length="9.68" width="4.00" shape="912.00,306.00 909.38,306.38 907.50,307.50 906.38,309.38 906.00,312.00"/>
    </edge>
    <edge id=":D1_5" function="internal">
        <lane id=":D1_5_0" index="0" speed="16.67" length="24.00" width="4.00" shape="912.00,306.00 888.00,306.00"/>
        <lane id=":D1_5_1" index="1" speed="16.67" length="24.00" width="4.00" shape="912.00,302.00 888.00,302.00"/>
    </edge>
    <edge id=":D1_7" function="internal">
        <lane id=":D1_7_0" index="0" speed="10.02" length="22.58" width="4.00" shape="912.00,302.00 905.88,301.13 901.50,298.50 898.88,294.13 898.00,288.00"/>
    </edge>
    <edge id=":D1_8" function="internal">
        <lane id=":D1_8_0" index="0" speed="6.79" length="9.68" width="4.00" shape="906.00,288.00 906.38,290.63 907.50,292.50 909.38,293.63 912.00,294.00"/>
    </edge>
    <edge id=":D1_9" function="internal">
        <lane id=":D1_9_0" index="0" speed="16.67" length="24.00" width="4.00" shape="906.00,288.00 906.00,312.00"/>
        <lane id=":D1_9_1" index="1" speed="16.67" length="24.00" width="4.00" shape="902.00,288.00 902.00,312.00"/>
    </edge>
    <edge id=":D1_11" function="internal">
        <lane id=":D1_11_0" index="0" speed="10.02" length="8.37" width="4.00" shape="902.00,288.00 901.13,294.13 900.00,296.00"/>
    </edge>
    <edge id=":D1_17" function="internal">
        <lane id=":D1_17_0" index="0" speed="10.02" length="14.20" width="4.00" shape="900.00,296.00 898.50,298.50 894.13,301.13 888.00,302.00"/>
    </edge>
    <edge id=":D1_12" function="internal">
        <lane id=":D1_12_0" index="0" speed="6.79" length="9.68" width="4.00" shape="888.00,294.00 890.63,293.63 892.50,292.50 893.63,290.63 894.00,288.00"/>
    </edge>
    <edge id=":D1_13" function="internal">
        <lane id=":D1_13_0" index="0" speed="16.67" length="24.00" width="4.00" shape="888.00,294.00 912.00,294.00"/>
        <lane id=":D1_13_1" index="1" speed="16.67" length="24.00" width="4.00" shape="888.00,298.00 912.00,298.00"/>
    </edge>
    <edge id=":D1_15" function="internal">
        <lane id=":D1_15_0" index="0" speed="10.02" length="22.58" width="4.00" shape="888.00,298.00 894.13,298.88 898.50,301.50 901.13,305.88 902.00,312.00"/>
    </edge>