<?xml version="1.0" encoding="UTF-8"?>

<!-- generated on 11/09/22 20:11:49 by Eclipse SUMO netedit Version 1.8.0
<configuration xmlns:xsi="http://www.w3.org/2001/XMLSchema-instance" xsi:noNamespaceSchemaLocation="http://sumo.dlr.de/xsd/netconvertConfiguration.xsd">

    <input>
        <sumo-net-file value="E:\SUMO%20Ottawa\Manhattan%20Scenario\Veh%20Comm\manhattan150v60ms%20-ok1\data\net.net.xml"/>
    </input>

    <output>
        <output-file value="E:\SUMO%20Ottawa\Manhattan%20Scenario\Veh%20Comm\manhattan150v60ms%20-ok1\data\net.net.xml"/>
    </output>

    <processing>
        <geometry.min-radius.fix.railways value="false"/>
        <geometry.max-grade.fix value="false"/>
        <offset.disable-normalization value="true"/>
        <lefthand value="false"/>
    </processing>

    <junctions>
        <no-turnarounds value="true"/>
        <junctions.corner-detail value="5"/>
        <junctions.limit-turn-speed value="5.5"/>
        <rectangular-lane-cut value="false"/>
    </junctions>

    <pedestrian>
        <walkingareas value="false"/>
    </pedestrian>

    <report>
        <aggregate-warnings value="5"/>
    </report>

</configuration>
-->

<net version="1.6" junctionCornerDetail="5" limitTurnSpeed="5.50" xmlns:xsi="http://www.w3.org/2001/XMLSchema-instance" xsi:noNamespaceSchemaLocation="http://sumo.dlr.de/xsd/net_file.xsd">

    <location netOffset="0.00,0.00" convBoundary="0.00,0.00,1200.00,900.00" origBoundary="0.00,0.00,1200.00,900.00" projParameter="!"/>

    <edge id=":A0_0" function="internal">
        <lane id=":A0_0_0" index="0" speed="9.72" length="21.29" width="3.60" shape="-1.80,11.20 -1.21,3.94 0.55,-1.25 3.49,-4.36 7.60,-5.40"/>
    </edge>
    <edge id=":A0_1" function="internal">
        <lane id=":A0_1_0" index="0" speed="9.01" length="18.16" width="3.60" shape="-1.80,11.20 -1.21,5.51 0.55,1.45 3.49,-0.99 7.60,-1.80"/>
    </edge>
    <edge id=":A0_2" function="internal">
        <lane id=":A0_2_0" index="0" speed="6.65" length="9.35" width="3.60" shape="7.60,5.40 5.06,5.76 3.25,6.85 2.16,8.66 1.80,11.20"/>
    </edge>
    <edge id=":A1_0" function="internal">
        <lane id=":A1_0_0" index="0" speed="16.67" length="29.60" width="3.60" shape="-1.80,314.80 -1.80,285.20"/>
    </edge>
    <edge id=":A1_1" function="internal">
        <lane id=":A1_1_0" index="0" speed="10.39" length="13.37" width="3.60" shape="-1.80,314.80 -1.21,305.96 -0.00,301.62"/>
    </edge>
    <edge id=":A1_2" function="internal">
        <lane id=":A1_2_0" index="0" speed="9.72" length="11.06" width="3.60" shape="-1.80,314.80 -1.21,307.54 -0.00,303.97"/>
    </edge>
    <edge id=":A1_7" function="internal">
        <lane id=":A1_7_0" index="0" speed="10.39" length="11.14" width="3.60" shape="-0.00,301.62 0.55,299.65 3.49,295.86 7.60,294.60"/>
    </edge>
    <edge id=":A1_8" function="internal">
        <lane id=":A1_8_0" index="0" speed="9.72" length="10.23" width="3.60" shape="-0.00,303.97 0.55,302.35 3.49,299.24 7.60,298.20"/>
    </edge>
    <edge id=":A1_3" function="internal">
        <lane id=":A1_3_0" index="0" speed="6.65" length="9.35" width="3.60" shape="7.60,309.00 5.06,309.36 3.25,310.45 2.16,312.26 1.80,314.80"/>
    </edge>
    <edge id=":A1_4" function="internal">
        <lane id=":A1_4_0" index="0" speed="9.72" length="21.29" width="3.60" shape="7.60,301.80 3.49,300.76 0.55,297.65 -1.21,292.46 -1.80,285.20"/>
    </edge>
    <edge id=":A1_5" function="internal">
        <lane id=":A1_5_0" index="0" speed="6.65" length="9.35" width="3.60" shape="1.80,285.20 2.16,287.74 3.25,289.55 5.06,290.64 7.60,291.00"/>
    </edge>
    <edge id=":A1_6" function="internal">
        <lane id=":A1_6_0" index="0" speed="16.67" length="29.60" width="3.60" shape="1.80,285.20 1.80,314.80"/>
    </edge>
    <edge id=":A2_0" function="internal">
        <lane id=":A2_0_0" index="0" speed="16.67" length="22.40" width="3.60" shape="-1.80,611.20 -1.80,588.80"/>
    </edge>
    <edge id=":A2_1" function="internal">
        <lane id=":A2_1_0" index="0" speed="9.01" length="8.76" width="3.60" shape="-1.80,611.20 -1.21,605.51 0.00,602.72"/>
    </edge>
    <edge id=":A2_6" function="internal">
        <lane id=":A2_6_0" index="0" speed="9.01" length="9.39" width="3.60" shape="0.00,602.72 0.55,601.45 3.49,599.01 7.60,598.20"/>
    </edge>
    <edge id=":A2_2" function="internal">
        <lane id=":A2_2_0" index="0" speed="6.65" length="9.35" width="3.60" shape="7.60,605.40 5.06,605.76 3.25,606.85 2.16,608.66 1.80,611.20"/>
    </edge>
    <edge id=":A2_3" function="internal">
        <lane id=":A2_3_0" index="0" speed="9.01" length="18.16" width="3.60" shape="7.60,601.80 3.49,600.99 0.55,598.55 -1.21,594.49 -1.80,588.80"/>
    </edge>
    <edge id=":A2_4" function="internal">
        <lane id=":A2_4_0" index="0" speed="6.65" length="9.35" width="3.60" shape="1.80,588.80 2.16,591.34 3.25,593.15 5.06,594.24 7.60,594.60"/>
    </edge>
    <edge id=":A2_5" function="internal">
        <lane id=":A2_5_0" index="0" speed="16.67" length="22.40" width="3.60" shape="1.80,588.80 1.80,611.20"/>
    </edge>
    <edge id=":A3_0" function="internal">
        <lane id=":A3_0_0" index="0" speed="6.45" length="8.71" width="3.60" shape="3.60,901.80 1.24,901.46 -0.45,900.45 -1.46,898.76 -1.80,896.40"/>
    </edge>
    <edge id=":A3_1" function="internal">
        <lane id=":A3_1_0" index="0" speed="4.14" length="2.90" width="3.60" shape="1.80,896.40 1.91,897.19 2.25,897.75 2.81,898.09 3.60,898.20"/>
    </edge>
    <edge id=":B0_0" function="internal">
        <lane id=":B0_0_0" index="0" speed="6.65" length="9.35" width="3.60" shape="294.60,11.20 294.24,8.66 293.15,6.85 291.34,5.76 288.80,5.40"/>
    </edge>
    <edge id=":B0_1" function="internal">
        <lane id=":B0_1_0" index="0" speed="9.65" length="20.97" width="3.60" shape="298.20,11.20 299.01,5.51 301.45,1.45 305.51,-0.99 311.20,-1.80"/>
    </edge>
    <edge id=":B0_2" function="internal">
        <lane id=":B0_2_0" index="0" speed="6.65" length="9.35" width="3.60" shape="311.20,5.40 308.66,5.76 306.85,6.85 305.76,8.66 305.40,11.20"/>
    </edge>
    <edge id=":B0_3" function="internal">
        <lane id=":B0_3_0" index="0" speed="16.67" length="22.40" width="3.60" shape="311.20,5.40 288.80,5.40"/>
        <lane id=":B0_3_1" index="1" speed="16.67" length="22.40" width="3.60" shape="311.20,1.80 288.80,1.80"/>
    </edge>
    <edge id=":B0_5" function="internal">
        <lane id=":B0_5_0" index="0" speed="16.67" length="22.40" width="3.60" shape="288.80,-5.40 311.20,-5.40"/>
        <lane id=":B0_5_1" index="1" speed="16.67" length="22.40" width="3.60" shape="288.80,-1.80 311.20,-1.80"/>
    </edge>
    <edge id=":B0_7" function="internal">
        <lane id=":B0_7_0" index="0" speed="9.65" length="7.66" width="3.60" shape="288.80,-1.80 294.49,-0.99 296.13,-0.00"/>
    </edge>
    <edge id=":B0_8" function="internal">
        <lane id=":B0_8_0" index="0" speed="9.65" length="13.30" width="3.60" shape="296.13,-0.00 298.55,1.45 300.99,5.51 301.80,11.20"/>
    </edge>
    <edge id=":B1_0" function="internal">
        <lane id=":B1_0_0" index="0" speed="6.65" length="9.35" width="3.60" shape="294.60,314.80 294.24,312.26 293.15,310.45 291.34,309.36 288.80,309.00"/>
    </edge>
    <edge id=":B1_1" function="internal">
        <lane id=":B1_1_0" index="0" speed="16.67" length="29.60" width="3.60" shape="294.60,314.80 294.60,285.20"/>
        <lane id=":B1_1_1" index="1" speed="16.67" length="29.60" width="3.60" shape="298.20,314.80 298.20,285.20"/>
    </edge>
    <edge id=":B1_3" function="internal">
        <lane id=":B1_3_0" index="0" speed="10.27" length="9.63" width="3.60" shape="298.20,314.80 299.01,307.54 300.00,305.44"/>
    </edge>
    <edge id=":B1_18" function="internal">
        <lane id=":B1_18_0" index="0" speed="10.27" length="14.31" width="3.60" shape="300.00,305.44 301.45,302.35 305.51,299.24 311.20,298.20"/>
    </edge>
    <edge id=":B1_4" function="internal">
        <lane id=":B1_4_0" index="0" speed="6.65" length="9.35" width="3.60" shape="311.20,309.00 308.66,309.36 306.85,310.45 305.76,312.26 305.40,314.80"/>
    </edge>
    <edge id=":B1_5" function="internal">
        <lane id=":B1_5_0" index="0" speed="16.67" length="22.40" width="3.60" shape="311.20,309.00 288.80,309.00"/>
        <lane id=":B1_5_1" index="1" speed="16.67" length="22.40" width="3.60" shape="311.20,305.40 288.80,305.40"/>
        <lane id=":B1_5_2" index="2" speed="16.67" length="22.40" width="3.60" shape="311.20,301.80 288.80,301.80"/>
    </edge>
    <edge id=":B1_8" function="internal">
        <lane id=":B1_8_0" index="0" speed="10.27" length="7.04" width="3.60" shape="311.20,301.80 305.51,300.76 304.52,300.00"/>
    </edge>
    <edge id=":B1_19" function="internal">
        <lane id=":B1_19_0" index="0" speed="10.27" length="16.90" width="3.60" shape="304.52,300.00 301.45,297.65 299.01,292.46 298.20,285.20"/>
    </edge>
    <edge id=":B1_9" function="internal">
        <lane id=":B1_9_0" index="0" speed="6.65" length="9.35" width="3.60" shape="305.40,285.20 305.76,287.74 306.85,289.55 308.66,290.64 311.20,291.00"/>
    </edge>
    <edge id=":B1_10" function="internal">
        <lane id=":B1_10_0" index="0" speed="16.67" length="29.60" width="3.60" shape="305.40,285.20 305.40,314.80"/>
        <lane id=":B1_10_1" index="1" speed="16.67" length="29.60" width="3.60" shape="301.80,285.20 301.80,314.80"/>
    </edge>
    <edge id=":B1_12" function="internal">
        <lane id=":B1_12_0" index="0" speed="10.27" length="9.63" width="3.60" shape="301.80,285.20 300.99,292.46 300.00,294.56"/>
    </edge>
    <edge id=":B1_20" function="internal">
        <lane id=":B1_20_0" index="0" speed="10.27" length="14.31" width="3.60" shape="300.00,294.56 298.55,297.65 294.49,300.76 288.80,301.80"/>
    </edge>
    <edge id=":B1_13" function="internal">
        <lane id=":B1_13_0" index="0" speed="6.65" length="9.35" width="3.60" shape="288.80,291.00 291.34,290.64 293.15,289.55 294.24,287.74 294.60,285.20"/>
    </edge>
    <edge id=":B1_14" function="internal">
        <lane id=":B1_14_0" index="0" speed="16.67" length="22.40" width="3.60" shape="288.80,291.00 311.20,291.00"/>
        <lane id=":B1_14_1" index="1" speed="16.67" length="22.40" width="3.60" shape="288.80,294.60 311.20,294.60"/>
        <lane id=":B1_14_2" index="2" speed="16.67" length="22.40" width="3.60" shape="288.80,298.20 311.20,298.20"/>
    </edge>
    <edge id=":B1_17" function="internal">
        <lane id=":B1_17_0" index="0" speed="10.27" length="7.04" width="3.60" shape="288.80,298.20 294.49,299.24 295.48,300.00"/>
    </edge>
    <edge id=":B1_21" function="internal">
        <lane id=":B1_21_0" index="0" speed="10.27" length="16.90" width="3.60" shape="295.48,300.00 298.55,302.35 300.99,307.54 301.80,314.80"/>
    </edge>
    <edge id=":B2_0" function="internal">
        <lane id=":B2_0_0" index="0" speed="6.65" length="9.35" width="3.60" shape="294.60,611.20 294.24,608.66 293.15,606.85 291.34,605.76 288.80,605.40"/>
    </edge>
    <edge id=":B2_1" function="internal">
        <lane id=":B2_1_0" index="0" speed="16.67" length="22.40" width="3.60" shape="294.60,611.20 294.60,588.80"/>
        <lane id=":B2_1_1" index="1" speed="16.67" length="22.40" width="3.60" shape="298.20,611.20 298.20,588.80"/>
    </edge>
    <edge id=":B2_3" function="internal">
        <lane id=":B2_3_0" index="0" speed="9.65" length="7.66" width="3.60" shape="298.20,611.20 299.01,605.51 300.00,603.87"/>
    </edge>
    <edge id=":B2_16" function="internal">
        <lane id=":B2_16_0" index="0" speed="9.65" length="13.30" width="3.60" shape="300.00,603.87 301.45,601.45 305.51,599.01 311.20,598.20"/>
    </edge>
    <edge id=":B2_4" function="internal">
        <lane id=":B2_4_0" index="0" speed="6.65" length="9.35" width="3.60" shape="311.20,605.40 308.66,605.76 306.85,606.85 305.76,608.66 305.40,611.20"/>
    </edge>
    <edge id=":B2_5" function="internal">
        <lane id=":B2_5_0" index="0" speed="16.67" length="22.40" width="3.60" shape="311.20,605.40 288.80,605.40"/>
        <lane id=":B2_5_1" index="1" speed="16.67" length="22.40" width="3.60" shape="311.20,601.80 288.80,601.80"/>
    </edge>
    <edge id=":B2_7" function="internal">
        <lane id=":B2_7_0" index="0" speed="9.65" length="7.66" width="3.60" shape="311.20,601.80 305.51,600.99 303.87,600.00"/>
    </edge>
    <edge id=":B2_17" function="internal">
        <lane id=":B2_17_0" index="0" speed="9.65" length="13.30" width="3.60" shape="303.87,600.00 301.45,598.55 299.01,594.49 298.20,588.80"/>
    </edge>
    <edge id=":B2_8" function="internal">
        <lane id=":B2_8_0" index="0" speed="6.65" length="9.35" width="3.60" shape="305.40,588.80 305.76,591.34 306.85,593.15 308.66,594.24 311.20,594.60"/>
    </edge>
    <edge id=":B2_9" function="internal">
        <lane id=":B2_9_0" index="0" speed="16.67" length="22.40" width="3.60" shape="305.40,588.80 305.40,611.20"/>
        <lane id=":B2_9_1" index="1" speed="16.67" length="22.40" width="3.60" shape="301.80,588.80 301.80,611.20"/>
    </edge>
    <edge id=":B2_11" function="internal">
        <lane id=":B2_11_0" index="0" speed="9.65" length="7.66" width="3.60" shape="301.80,588.80 300.99,594.49 300.00,596.13"/>
    </edge>
    <edge id=":B2_18" function="internal">
        <lane id=":B2_18_0" index="0" speed="9.65" length="13.30" width="3.60" shape="300.00,596.13 298.55,598.55 294.49,600.99 288.80,601.80"/>
    </edge>
    <edge id=":B2_12" function="internal">
        <lane id=":B2_12_0" index="0" speed="6.65" length="9.35" width="3.60" shape="288.80,594.60 291.34,594.24 293.15,593.15 294.24,591.34 294.60,588.80"/>
    </edge>
    <edge id=":B2_13" function="internal">
        <lane id=":B2_13_0" index="0" speed="16.67" length="22.40" width="3.60" shape="288.80,594.60 311.20,594.60"/>
        <lane id=":B2_13_1" index="1" speed="16.67" length="22.40" width="3.60" shape="288.80,598.20 311.20,598.20"/>
    </edge>
    <edge id=":B2_15" function="internal">
        <lane id=":B2_15_0" index="0" speed="9.65" length="7.66" width="3.60" shape="288.80,598.20 294.49,599.01 296.13,600.00"/>
    </edge>
    <edge id=":B2_19" function="internal">
        <lane id=":B2_19_0" index="0" speed="9.65" length="13.30" width="3.60" shape="296.13,600.00 298.55,601.45 300.99,605.51 301.80,611.20"/>
    </edge>
    <edge id=":B3_0" function="internal">
        <lane id=":B3_0_0" index="0" speed="16.67" length="22.40" width="3.60" shape="311.20,901.80 288.80,901.80"/>
    </edge>
    <edge id=":B3_1" function="internal">
        <lane id=":B3_1_0" index="0" speed="9.01" length="8.76" width="3.60" shape="311.20,901.80 305.51,901.21 302.72,900.00"/>
    </edge>
    <edge id=":B3_6" function="internal">
        <lane id=":B3_6_0" index="0" speed="9.01" length="9.39" width="3.60" shape="302.72,900.00 301.45,899.45 299.01,896.51 298.20,892.40"/>
    </edge>
    <edge id=":B3_2" function="internal">
        <lane id=":B3_2_0" index="0" speed="6.65" length="9.35" width="3.60" shape="305.40,892.40 305.76,894.94 306.85,896.75 308.66,897.84 311.20,898.20"/>
    </edge>
    <edge id=":B3_3" function="internal">
        <lane id=":B3_3_0" index="0" speed="9.01" length="18.16" width="3.60" shape="301.80,892.40 300.99,896.51 298.55,899.45 294.49,901.21 288.80,901.80"/>
    </edge>
    <edge id=":B3_4" function="internal">
        <lane id=":B3_4_0" index="0" speed="6.65" length="9.35" width="3.60" shape="288.80,898.20 291.34,897.84 293.15,896.75 294.24,894.94 294.60,892.40"/>
    </edge>
    <edge id=":B3_5" function="internal">
        <lane id=":B3_5_0" index="0" speed="16.67" length="22.40" width="3.60" shape="288.80,898.20 311.20,898.20"/>
    </edge>
    <edge id=":C0_0" function="internal">
        <lane id=":C0_0_0" index="0" speed="6.65" length="9.35" width="3.60" shape="591.00,11.20 590.64,8.66 589.55,6.85 587.74,5.76 585.20,5.40"/>
    </edge>
    <edge id=":C0_1" function="internal">
        <lane id=":C0_1_0" index="0" speed="8.29" length="15.16" width="3.60" shape="594.60,11.20 594.01,7.09 592.25,4.15 589.31,2.39 585.20,1.80"/>
    </edge>
    <edge id=":C0_2" function="internal">
        <lane id=":C0_2_0" index="0" speed="10.27" length="23.94" width="3.60" shape="598.20,11.20 599.24,5.51 602.35,1.45 607.54,-0.99 614.80,-1.80"/>
    </edge>
    <edge id=":C0_3" function="internal">
        <lane id=":C0_3_0" index="0" speed="6.65" length="9.35" width="3.60" shape="614.80,5.40 612.26,5.76 610.45,6.85 609.36,8.66 609.00,11.20"/>
    </edge>
    <edge id=":C0_4" function="internal">
        <lane id=":C0_4_0" index="0" speed="16.67" length="29.60" width="3.60" shape="614.80,5.40 585.20,5.40"/>
        <lane id=":C0_4_1" index="1" speed="16.67" length="29.60" width="3.60" shape="614.80,1.80 585.20,1.80"/>
    </edge>
    <edge id=":C0_6" function="internal">
        <lane id=":C0_6_0" index="0" speed="16.67" length="29.60" width="3.60" shape="585.20,-5.40 614.80,-5.40"/>
        <lane id=":C0_6_1" index="1" speed="16.67" length="29.60" width="3.60" shape="585.20,-1.80 614.80,-1.80"/>
    </edge>
    <edge id=":C0_8" function="internal">
        <lane id=":C0_8_0" index="0" speed="10.89" length="11.62" width="3.60" shape="585.20,-1.80 594.04,-0.99 596.59,-0.00"/>
    </edge>
    <edge id=":C0_9" function="internal">
        <lane id=":C0_9_0" index="0" speed="10.27" length="9.63" width="3.60" shape="585.20,-1.80 592.46,-0.99 594.56,-0.00"/>
    </edge>
    <edge id=":C0_10" function="internal">
        <lane id=":C0_10_0" index="0" speed="10.89" length="15.41" width="3.60" shape="596.59,-0.00 600.35,1.45 604.14,5.51 605.40,11.20"/>
    </edge>
    <edge id=":C0_11" function="internal">
        <lane id=":C0_11_0" index="0" speed="10.27" length="14.31" width="3.60" shape="594.56,-0.00 597.65,1.45 600.76,5.51 601.80,11.20"/>
    </edge>
    <edge id=":C1_0" function="internal">
        <lane id=":C1_0_0" index="0" speed="6.65" length="9.35" width="3.60" shape="591.00,314.80 590.64,312.26 589.55,310.45 587.74,309.36 585.20,309.00"/>
    </edge>
    <edge id=":C1_1" function="internal">
        <lane id=":C1_1_0" index="0" speed="16.67" length="29.60" width="3.60" shape="591.00,314.80 591.00,285.20"/>
        <lane id=":C1_1_1" index="1" speed="16.67" length="29.60" width="3.60" shape="594.60,314.80 594.60,285.20"/>
        <lane id=":C1_1_2" index="2" speed="16.67" length="29.60" width="3.60" shape="598.20,314.80 598.20,285.20"/>
    </edge>
    <edge id=":C1_4" function="internal">
        <lane id=":C1_4_0" index="0" speed="10.84" length="8.82" width="3.60" shape="598.20,314.80 599.24,307.54 600.00,306.27"/>
    </edge>
    <edge id=":C1_20" function="internal">
        <lane id=":C1_20_0" index="0" speed="10.84" length="17.95" width="3.60" shape="600.00,306.27 602.35,302.35 607.54,299.24 614.80,298.20"/>
    </edge>
    <edge id=":C1_5" function="internal">
        <lane id=":C1_5_0" index="0" speed="6.65" length="9.35" width="3.60" shape="614.80,309.00 612.26,309.36 610.45,310.45 609.36,312.26 609.00,314.80"/>
    </edge>
    <edge id=":C1_6" function="internal">
        <lane id=":C1_6_0" index="0" speed="16.67" length="29.60" width="3.60" shape="614.80,309.00 585.20,309.00"/>
        <lane id=":C1_6_1" index="1" speed="16.67" length="29.60" width="3.60" shape="614.80,305.40 585.20,305.40"/>
        <lane id=":C1_6_2" index="2" speed="16.67" length="29.60" width="3.60" shape="614.80,301.80 585.20,301.80"/>
    </edge>
    <edge id=":C1_9" function="internal">
        <lane id=":C1_9_0" index="0" speed="10.84" length="8.82" width="3.60" shape="614.80,301.80 607.54,300.76 606.27,300.00"/>
    </edge>
    <edge id=":C1_21" function="internal">
        <lane id=":C1_21_0" index="0" speed="10.84" length="17.95" width="3.60" shape="606.27,300.00 602.35,297.65 599.24,292.46 598.20,285.20"/>
    </edge>
    <edge id=":C1_10" function="internal">
        <lane id=":C1_10_0" index="0" speed="6.65" length="9.35" width="3.60" shape="609.00,285.20 609.36,287.74 610.45,289.55 612.26,290.64 614.80,291.00"/>
    </edge>
    <edge id=":C1_11" function="internal">
        <lane id=":C1_11_0" index="0" speed="16.67" length="29.60" width="3.60" shape="609.00,285.20 609.00,314.80"/>
        <lane id=":C1_11_1" index="1" speed="16.67" length="29.60" width="3.60" shape="605.40,285.20 605.40,314.80"/>
        <lane id=":C1_11_2" index="2" speed="16.67" length="29.60" width="3.60" shape="601.80,285.20 601.80,314.80"/>
    </edge>
    <edge id=":C1_14" function="internal">
        <lane id=":C1_14_0" index="0" speed="10.84" length="8.82" width="3.60" shape="601.80,285.20 600.76,292.46 600.00,293.73"/>
    </edge>
    <edge id=":C1_22" function="internal">
        <lane id=":C1_22_0" index="0" speed="10.84" length="17.95" width="3.60" shape="600.00,293.73 597.65,297.65 592.46,300.76 585.20,301.80"/>
    </edge>
    <edge id=":C1_15" function="internal">
        <lane id=":C1_15_0" index="0" speed="6.65" length="9.35" width="3.60" shape="585.20,291.00 587.74,290.64 589.55,289.55 590.64,287.74 591.00,285.20"/>
    </edge>
    <edge id=":C1_16" function="internal">
        <lane id=":C1_16_0" index="0" speed="16.67" length="29.60" width="3.60" shape="585.20,291.00 614.80,291.00"/>
        <lane id=":C1_16_1" index="1" speed="16.67" length="29.60" width="3.60" shape="585.20,294.60 614.80,294.60"/>
        <lane id=":C1_16_2" index="2" speed="16.67" length="29.60" width="3.60" shape="585.20,298.20 614.80,298.20"/>
    </edge>
    <edge id=":C1_19" function="internal">
        <lane id=":C1_19_0" index="0" speed="10.84" length="8.82" width="3.60" shape="585.20,298.20 592.46,299.24 593.73,300.00"/>
    </edge>
    <edge id=":C1_23" function="internal">
        <lane id=":C1_23_0" index="0" speed="10.84" length="17.95" width="3.60" shape="593.73,300.00 597.65,302.35 600.76,307.54 601.80,314.80"/>
    </edge>
    <edge id=":C2_0" function="internal">
        <lane id=":C2_0_0" index="0" speed="6.65" length="9.35" width="3.60" shape="591.00,611.20 590.64,608.66 589.55,606.85 587.74,605.76 585.20,605.40"/>
    </edge>
    <edge id=":C2_1" function="internal">
        <lane id=":C2_1_0" index="0" speed="16.67" length="22.40" width="3.60" shape="591.00,611.20 591.00,588.80"/>
        <lane id=":C2_1_1" index="1" speed="16.67" length="22.40" width="3.60" shape="594.60,611.20 594.60,588.80"/>
        <lane id=":C2_1_2" index="2" speed="16.67" length="22.40" width="3.60" shape="598.20,611.20 598.20,588.80"/>
    </edge>
    <edge id=":C2_4" function="internal">
        <lane id=":C2_4_0" index="0" speed="10.27" length="7.04" width="3.60" shape="598.20,611.20 599.24,605.51 600.00,604.52"/>
    </edge>
    <edge id=":C2_18" function="internal">
        <lane id=":C2_18_0" index="0" speed="10.27" length="16.90" width="3.60" shape="600.00,604.52 602.35,601.45 607.54,599.01 614.80,598.20"/>
    </edge>
    <edge id=":C2_5" function="internal">
        <lane id=":C2_5_0" index="0" speed="6.65" length="9.35" width="3.60" shape="614.80,605.40 612.26,605.76 610.45,606.85 609.36,608.66 609.00,611.20"/>
    </edge>
    <edge id=":C2_6" function="internal">
        <lane id=":C2_6_0" index="0" speed="16.67" length="29.60" width="3.60" shape="614.80,605.40 585.20,605.40"/>
        <lane id=":C2_6_1" index="1" speed="16.67" length="29.60" width="3.60" shape="614.80,601.80 585.20,601.80"/>
    </edge>
    <edge id=":C2_8" function="internal">
        <lane id=":C2_8_0" index="0" speed="10.27" length="9.63" width="3.60" shape="614.80,601.80 607.54,600.99 605.44,600.00"/>
    </edge>
    <edge id=":C2_19" function="internal">
        <lane id=":C2_19_0" index="0" speed="10.27" length="14.31" width="3.60" shape="605.44,600.00 602.35,598.55 599.24,594.49 598.20,588.80"/>
    </edge>
    <edge id=":C2_9" function="internal">
        <lane id=":C2_9_0" index="0" speed="6.65" length="9.35" width="3.60" shape="609.00,588.80 609.36,591.34 610.45,593.15 612.26,594.24 614.80,594.60"/>
    </edge>
    <edge id=":C2_10" function="internal">
        <lane id=":C2_10_0" index="0" speed="16.67" length="22.40" width="3.60" shape="609.00,588.80 609.00,611.20"/>
        <lane id=":C2_10_1" index="1" speed="16.67" length="22.40" width="3.60" shape="605.40,588.80 605.40,611.20"/>
        <lane id=":C2_10_2" index="2" speed="16.67" length="22.40" width="3.60" shape="601.80,588.80 601.80,611.20"/>
    </edge>
    <edge id=":C2_13" function="internal">
        <lane id=":C2_13_0" index="0" speed="10.27" length="7.04" width="3.60" shape="601.80,588.80 600.76,594.49 600.00,595.48"/>
    </edge>
    <edge id=":C2_20" function="internal">
        <lane id=":C2_20_0" index="0" speed="10.27" length="16.90" width="3.60" shape="600.00,595.48 597.65,598.55 592.46,600.99 585.20,601.80"/>
    </edge>
    <edge id=":C2_14" function="internal">
        <lane id=":C2_14_0" index="0" speed="6.65" length="9.35" width="3.60" shape="585.20,594.60 587.74,594.24 589.55,593.15 590.64,591.34 591.00,588.80"/>
    </edge>
    <edge id=":C2_15" function="internal">
        <lane id=":C2_15_0" index="0" speed="16.67" length="29.60" width="3.60" shape="585.20,594.60 614.80,594.60"/>
        <lane id=":C2_15_1" index="1" speed="16.67" length="29.60" width="3.60" shape="585.20,598.20 614.80,598.20"/>
    </edge>
    <edge id=":C2_17" function="internal">
        <lane id=":C2_17_0" index="0" speed="10.27" length="9.63" width="3.60" shape="585.20,598.20 592.46,599.01 594.56,600.00"/>
    </edge>
    <edge id=":C2_21" function="internal">
        <lane id=":C2_21_0" index="0" speed="10.27" length="14.31" width="3.60" shape="594.56,600.00 597.65,601.45 600.76,605.51 601.80,611.20"/>
    </edge>
    <edge id=":C3_0" function="internal">
        <lane id=":C3_0_0" index="0" speed="16.67" length="29.60" width="3.60" shape="614.80,901.80 585.20,901.80"/>
    </edge>
    <edge id=":C3_1" function="internal">
        <lane id=":C3_1_0" index="0" speed="10.39" length="13.37" width="3.60" shape="614.80,901.80 605.96,901.21 601.62,900.00"/>
    </edge>
    <edge id=":C3_2" function="internal">
        <lane id=":C3_2_0" index="0" speed="9.72" length="11.06" width="3.60" shape="614.80,901.80 607.54,901.21 603.97,900.00"/>
    </edge>
    <edge id=":C3_7" function="internal">
        <lane id=":C3_7_0" index="0" speed="10.39" length="11.14" width="3.60" shape="601.62,900.00 599.65,899.45 595.86,896.51 594.60,892.40"/>
    </edge>
    <edge id=":C3_8" function="internal">
        <lane id=":C3_8_0" index="0" speed="9.72" length="10.23" width="3.60" shape="603.97,900.00 602.35,899.45 599.24,896.51 598.20,892.40"/>
    </edge>
    <edge id=":C3_3" function="internal">
        <lane id=":C3_3_0" index="0" speed="6.65" length="9.35" width="3.60" shape="609.00,892.40 609.36,894.94 610.45,896.75 612.26,897.84 614.80,898.20"/>
    </edge>
    <edge id=":C3_4" function="internal">
        <lane id=":C3_4_0" index="0" speed="9.72" length="21.29" width="3.60" shape="601.80,892.40 600.76,896.51 597.65,899.45 592.46,901.21 585.20,901.80"/>
    </edge>
    <edge id=":C3_5" function="internal">
        <lane id=":C3_5_0" index="0" speed="6.65" length="9.35" width="3.60" shape="585.20,898.20 587.74,897.84 589.55,896.75 590.64,894.94 591.00,892.40"/>
    </edge>
    <edge id=":C3_6" function="internal">
        <lane id=":C3_6_0" index="0" speed="16.67" length="29.60" width="3.60" shape="585.20,898.20 614.80,898.20"/>
    </edge>
    <edge id=":D0_0" function="internal">
        <lane id=":D0_0_0" index="0" speed="6.65" length="9.35" width="3.60" shape="898.20,11.20 897.84,8.66 896.75,6.85 894.94,5.76 892.40,5.40"/>
    </edge>
    <edge id=":D0_1" function="internal">
        <lane id=":D0_1_0" index="0" speed="9.01" length="18.16" width="3.60" shape="898.20,11.20 898.79,5.51 900.55,1.45 903.49,-0.99 907.60,-1.80"/>
    </edge>
    <edge id=":D0_2" function="internal">
        <lane id=":D0_2_0" index="0" speed="6.65" length="9.35" width="3.60" shape="907.60,5.40 905.06,5.76 903.25,6.85 902.16,8.66 901.80,11.20"/>
    </edge>
    <edge id=":D0_3" function="internal">
        <lane id=":D0_3_0" index="0" speed="16.67" length="15.20" width="3.60" shape="907.60,5.40 892.40,5.40"/>
        <lane id=":D0_3_1" index="1" speed="16.67" length="15.20" width="3.60" shape="907.60,1.80 892.40,1.80"/>
    </edge>
    <edge id=":D0_5" function="internal">
        <lane id=":D0_5_0" index="0" speed="16.67" length="15.20" width="3.60" shape="892.40,-5.40 907.60,-5.40"/>
        <lane id=":D0_5_1" index="1" speed="16.67" length="15.20" width="3.60" shape="892.40,-1.80 907.60,-1.80"/>
    </edge>
    <edge id=":D0_7" function="internal">
        <lane id=":D0_7_0" index="0" speed="9.01" length="5.74" width="3.60" shape="892.40,-1.80 896.51,-0.99 897.70,0.00"/>
    </edge>
    <edge id=":D0_8" function="internal">
        <lane id=":D0_8_0" index="0" speed="9.01" length="12.42" width="3.60" shape="897.70,0.00 899.45,1.45 901.21,5.51 901.80,11.20"/>
    </edge>
    <edge id=":D1_0" function="internal">
        <lane id=":D1_0_0" index="0" speed="6.65" length="9.35" width="3.60" shape="898.20,314.80 897.84,312.26 896.75,310.45 894.94,309.36 892.40,309.00"/>
    </edge>
    <edge id=":D1_1" function="internal">
        <lane id=":D1_1_0" index="0" speed="16.67" length="29.60" width="3.60" shape="898.20,314.80 898.20,285.20"/>
    </edge>
    <edge id=":D1_2" function="internal">
        <lane id=":D1_2_0" index="0" speed="9.72" length="11.06" width="3.60" shape="898.20,314.80 898.79,307.54 900.00,303.97"/>
    </edge>
    <edge id=":D1_16" function="internal">